[General]
sim-time-limit = 100s
network = Network
#Network.traf.rate = 1